electric-grid/smallsignal/kundur-2area/3.Benchmark_4ger_ESST1A_noTGR_PSSori_2015/Benchmark_4ger_33_2015.epc
title
IEEE BENCHMARK SYSTEM VII
HTTP://WWW.SEL.EESC.USP.BR/IEEE/
!
comments
!
solution parameters
tap    1    tcul  enabled/disabled
phas   1    ps    enabled/disabled
area   1    area  enabled/disabled
svd    1    svd   enabled/disabled
dctap  1    dc    enabled/disabled
gcd    0    gcd   enabled/disabled
jump  0.000200    jumper threshold
toler   0.1000    newton tolerance
sbase 100.0000    system mva base
!
bus data  [11]               ty  vsched   volt     angle    ar zone  vmax   vmin   date_in date_out pid L own st  latitude  longitude island    sdmon   vmax1      vmin1      dvmax
      1 "GEN G1      "  20.0000 :  2 1.03000 1.030000  20.07008   1    1 1.1000 0.9000   400101   391231   0 0   1 0    0.00000    0.00000 0    0.00000    0.00000    0.00000
      2 "GEN G2      "  20.0000 :  2 1.01000 1.010000  10.30577   1    1 1.1000 0.9000   400101   391231   0 0   1 0    0.00000    0.00000 0    0.00000    0.00000    0.00000
      3 "GEN G3      "  20.0000 :  0 1.03000 1.030000  -7.00000   2    1 1.1000 0.9000   400101   391231   0 0   1 0    0.00000    0.00000 0    0.00000    0.00000    0.00000
      4 "GEN G4      "  20.0000 :  2 1.01000 1.010000 -17.19200   2    1 1.1000 0.9000   400101   391231   0 0   1 0    0.00000    0.00000 0    0.00000    0.00000    0.00000
      5 "G1          " 230.0000 :  1 1.006457 1.006457  13.60823   1    1 1.1000 0.9000   400101   391231   0 0   1 0    0.00000    0.00000 0    0.00000    0.00000    0.00000
      6 "G2          " 230.0000 :  1 0.978133 0.978133   3.52368   1    1 1.1000 0.9000   400101   391231   0 0   1 0    0.00000    0.00000 0    0.00000    0.00000    0.00000
      7 "LOAD A      " 230.0000 :  1 0.961020 0.961020  -4.88543   1    1 1.1000 0.9000   400101   391231   0 0   1 0    0.00000    0.00000 0    0.00000    0.00000    0.00000
      8 "MID POINT   " 230.0000 :  1 0.948616 0.948616 -18.75522   1    1 1.1000 0.9000   400101   391231   0 0   1 0    0.00000    0.00000 0    0.00000    0.00000    0.00000
      9 "LOAD B      " 230.0000 :  1 0.971371 0.971371 -32.35238   2    1 1.1000 0.9000   400101   391231   0 0   1 0    0.00000    0.00000 0    0.00000    0.00000    0.00000
     10 "G4          " 230.0000 :  1 0.983464 0.983464 -23.93717   2    1 1.1000 0.9000   400101   391231   0 0   1 0    0.00000    0.00000 0    0.00000    0.00000    0.00000
     11 "G3          " 230.0000 :  1 1.008257 1.008257 -13.62700   2    1 1.1000 0.9000   400101   391231   0 0   1 0    0.00000    0.00000 0    0.00000    0.00000    0.00000
branch data  [   14]                                          ck  se  ------------long_id_------------    st resist   react   charge   rate1  rate2  rate3  rate4 aloss  lngth 
      5 "G1          " 230.00       6 "G2          " 230.00  "1 "  1 "                                " :  1  0.005000  0.050000  0.021870  750.0  750.0    0.0    0.0 0.000   25.0 /
   1    1  0.000000  0.000000  1.000000   400101   391231   0 1  0    0.0    0.0    0.0    0.0   1 1.000   0 0.000   0 0.000   0 0.000   0 0.000   0 0.000   0 0.000   0 0.000  0 0 
      5 "G1          " 230.00       6 "G2          " 230.00  "2 "  1 "                                " :  1  0.005000  0.050000  0.021870  750.0  750.0    0.0    0.0 0.000   25.0 /
   1    1  0.000000  0.000000  1.000000   400101   391231   0 1  0    0.0    0.0    0.0    0.0   1 1.000   0 0.000   0 0.000   0 0.000   0 0.000   0 0.000   0 0.000   0 0.000  0 0 
      6 "G2          " 230.00       7 "LOAD A      " 230.00  "1 "  1 "                                " :  1  0.003000  0.030000  0.005830  700.0  700.0    0.0    0.0 0.000   10.0 /
   1    1  0.000000  0.000000  1.000000   400101   391231   0 1  0    0.0    0.0    0.0    0.0   1 1.000   0 0.000   0 0.000   0 0.000   0 0.000   0 0.000   0 0.000   0 0.000  0 0 
      6 "G2          " 230.00       7 "LOAD A      " 230.00  "2 "  1 "                                " :  1  0.003000  0.030000  0.005830  700.0  700.0    0.0    0.0 0.000   10.0 /
   1    1  0.000000  0.000000  1.000000   400101   391231   0 1  0    0.0    0.0    0.0    0.0   1 1.000   0 0.000   0 0.000   0 0.000   0 0.000   0 0.000   0 0.000   0 0.000  0 0 
      6 "G2          " 230.00       7 "LOAD A      " 230.00  "3 "  1 "                                " :  1  0.003000  0.030000  0.005830  700.0  700.0    0.0    0.0 0.000   10.0 /
   1    1  0.000000  0.000000  1.000000   400101   391231   0 1  0    0.0    0.0    0.0    0.0   1 1.000   0 0.000   0 0.000   0 0.000   0 0.000   0 0.000   0 0.000   0 0.000  0 0 
      7 "LOAD A      " 230.00       8 "MID POINT   " 230.00  "1 "  1 "                                " :  1  0.011000  0.110000  0.192500  400.0  400.0    0.0    0.0 0.000  110.0 /
   1    1  0.000000  0.000000  1.000000   400101   391231   0 1  0    0.0    0.0    0.0    0.0   1 1.000   0 0.000   0 0.000   0 0.000   0 0.000   0 0.000   0 0.000   0 0.000  0 0 
      7 "LOAD A      " 230.00       8 "MID POINT   " 230.00  "2 "  1 "                                " :  1  0.011000  0.110000  0.192500  400.0  400.0    0.0    0.0 0.000  110.0 /
   1    1  0.000000  0.000000  1.000000   400101   391231   0 1  0    0.0    0.0    0.0    0.0   1 1.000   0 0.000   0 0.000   0 0.000   0 0.000   0 0.000   0 0.000   0 0.000  0 0 
      8 "MID POINT   " 230.00       9 "LOAD B      " 230.00  "1 "  1 "                                " :  1  0.011000  0.110000  0.192500  400.0  400.0    0.0    0.0 0.000  110.0 /
   2    1  0.000000  0.000000  1.000000   400101   391231   0 1  0    0.0    0.0    0.0    0.0   1 1.000   0 0.000   0 0.000   0 0.000   0 0.000   0 0.000   0 0.000   0 0.000  0 0 
      8 "MID POINT   " 230.00       9 "LOAD B      " 230.00  "2 "  1 "                                " :  1  0.011000  0.110000  0.192500  400.0  400.0    0.0    0.0 0.000  110.0 /
   2    1  0.000000  0.000000  1.000000   400101   391231   0 1  0    0.0    0.0    0.0    0.0   1 1.000   0 0.000   0 0.000   0 0.000   0 0.000   0 0.000   0 0.000   0 0.000  0 0 
      9 "LOAD B      " 230.00      10 "G4          " 230.00  "1 "  1 "                                " :  1  0.003000  0.030000  0.005830  700.0  700.0    0.0    0.0 0.000   10.0 /
   2    1  0.000000  0.000000  1.000000   400101   391231   0 1  0    0.0    0.0    0.0    0.0   1 1.000   0 0.000   0 0.000   0 0.000   0 0.000   0 0.000   0 0.000   0 0.000  0 0 
      9 "LOAD B      " 230.00      10 "G4          " 230.00  "2 "  1 "                                " :  1  0.003000  0.030000  0.005830  700.0  700.0    0.0    0.0 0.000   10.0 /
   2    1  0.000000  0.000000  1.000000   400101   391231   0 1  0    0.0    0.0    0.0    0.0   1 1.000   0 0.000   0 0.000   0 0.000   0 0.000   0 0.000   0 0.000   0 0.000  0 0 
      9 "LOAD B      " 230.00      10 "G4          " 230.00  "3 "  1 "                                " :  1  0.003000  0.030000  0.005830  700.0  700.0    0.0    0.0 0.000   10.0 /
   2    1  0.000000  0.000000  1.000000   400101   391231   0 1  0    0.0    0.0    0.0    0.0   1 1.000   0 0.000   0 0.000   0 0.000   0 0.000   0 0.000   0 0.000   0 0.000  0 0 
     10 "G4          " 230.00      11 "G3          " 230.00  "1 "  1 "                                " :  1  0.005000  0.050000  0.021870  750.0  750.0    0.0    0.0 0.000   25.0 /
   2    1  0.000000  0.000000  1.000000   400101   391231   0 1  0    0.0    0.0    0.0    0.0   1 1.000   0 0.000   0 0.000   0 0.000   0 0.000   0 0.000   0 0.000   0 0.000  0 0 
     10 "G4          " 230.00      11 "G3          " 230.00  "2 "  1 "                                " :  1  0.005000  0.050000  0.021870  750.0  750.0    0.0    0.0 0.000   25.0 /
   2    1  0.000000  0.000000  1.000000   400101   391231   0 1  0    0.0    0.0    0.0    0.0   1 1.000   0 0.000   0 0.000   0 0.000   0 0.000   0 0.000   0 0.000   0 0.000  0 0 
transformer data  [   4]                                     ck   ------------long_id_------------     st ty --no---    reg_name          zt         int                              tert                   ar zone  tbase   ps_r    ps_x    pt_r    pt_x    ts_r    ts_x
      5 "G1          " 230.00       1 "GEN G1      "  20.00  "1 " "                                " :  1  1       0 "            "   0.00  0       0 "            "   0.00       0 "            "   0.00    1    1 900.000000 0.000000E+000 1.500000E-001 0.000000E+000 0.000000E+000 0.000000E+000 0.000000E+000 /
 230.000000 20.000000  0.000000  0.000000 0.000000E+000 0.000000E+000  900.0    0.0    0.0    0.0 1.000  1.100000  0.900000  1.100000  0.900000 -0.006250  1.000000  1.000000  1.000000  1.000000   400101   391231   0 1     0.0    0.0    0.0    0.0 /
   1 1.000   0 0.000   0 0.000   0 0.000   0 0.000   0 0.000   0 0.000   0 0.000  0 /
   0.000000   0.000000  0.000000  0.000000     0.0    0.0    0.0     0.0    0.0    0.0 0.000 0.000  0  0  0 0.0000 0.0000 0 
      6 "G2          " 230.00       2 "GEN G2      "  20.00  "1 " "                                " :  1  1       0 "            "   0.00  0       0 "            "   0.00       0 "            "   0.00    1    1 900.000000 0.000000E+000 1.500000E-001 0.000000E+000 0.000000E+000 0.000000E+000 0.000000E+000 /
 230.000000 20.000000  0.000000  0.000000 0.000000E+000 0.000000E+000  900.0    0.0    0.0    0.0 1.000  1.100000  0.900000  1.100000  0.900000 -0.006250  1.000000  1.000000  1.000000  1.000000   400101   391231   0 1     0.0    0.0    0.0    0.0 /
   1 1.000   0 0.000   0 0.000   0 0.000   0 0.000   0 0.000   0 0.000   0 0.000  0 /
   0.000000   0.000000  0.000000  0.000000     0.0    0.0    0.0     0.0    0.0    0.0 0.000 0.000  0  0  0 0.0000 0.0000 0 
     10 "G4          " 230.00       4 "GEN G4      "  20.00  "1 " "                                " :  1  1       0 "            "   0.00  0       0 "            "   0.00       0 "            "   0.00    2    1 900.000000 0.000000E+000 1.500000E-001 0.000000E+000 0.000000E+000 0.000000E+000 0.000000E+000 /
 230.000000 20.000000  0.000000  0.000000 0.000000E+000 0.000000E+000  900.0    0.0    0.0    0.0 1.000  1.100000  0.900000  1.100000  0.900000 -0.006250  1.000000  1.000000  1.000000  1.000000   400101   391231   0 1     0.0    0.0    0.0    0.0 /
   1 1.000   0 0.000   0 0.000   0 0.000   0 0.000   0 0.000   0 0.000   0 0.000  0 /
   0.000000   0.000000  0.000000  0.000000     0.0    0.0    0.0     0.0    0.0    0.0 0.000 0.000  0  0  0 0.0000 0.0000 0 
     11 "G3          " 230.00       3 "GEN G3      "  20.00  "1 " "                                " :  1  1       0 "            "   0.00  0       0 "            "   0.00       0 "            "   0.00    2    1 900.000000 0.000000E+000 1.500000E-001 0.000000E+000 0.000000E+000 0.000000E+000 0.000000E+000 /
 230.000000 20.000000  0.000000  0.000000 0.000000E+000 0.000000E+000  900.0    0.0    0.0    0.0 1.000  1.100000  0.900000  1.100000  0.900000 -0.006250  1.000000  1.000000  1.000000  1.000000   400101   391231   0 1     0.0    0.0    0.0    0.0 /
   1 1.000   0 0.000   0 0.000   0 0.000   0 0.000   0 0.000   0 0.000   0 0.000  0 /
   0.000000   0.000000  0.000000  0.000000     0.0    0.0    0.0     0.0    0.0    0.0 0.000 0.000  0  0  0 0.0000 0.0000 0 
generator data  [   4]         id   ------------long_id_------------    st ---no--     reg_name           prf  qrf  ar zone   pgen   pmax   pmin   qgen   qmax   qmin   mbase  cmp_r cmp_x gen_r gen_x           hbus                         tbus                date_in date_out pid N
      1 "GEN G1      "  20.00 "1 " "                                " :  1       1 "GEN G1      "  20.00  1.000000  1.000000   1    1 700.000000 765.000010   0.000000 185.005713 473.999977 -200.000000 900.0000 0.000 0.000 0.000 0.250      -1 "            "   0.00      -1 "            "   0.00    400101   391231   0 0 /
 0.0000 0.0000 1.0000    1 1.000   0 0.000   0 0.000   0 0.000   0 0.000   0 0.000   0 0.000   0 0.000   0   0   0   0   0   0   0    0.0 0 0  1.000000
      2 "GEN G2      "  20.00 "1 " "                                " :  1       2 "GEN G2      "  20.00  1.000000  1.000000   1    1 700.000000 765.000010   0.000000 234.587526 473.999977 -200.000000 900.0000 0.000 0.000 0.000 0.250      -1 "            "   0.00      -1 "            "   0.00    400101   391231   0 0 /
 0.0000 0.0000 1.0000    1 1.000   0 0.000   0 0.000   0 0.000   0 0.000   0 0.000   0 0.000   0 0.000   0   0   0   0   0   0   0    0.0 0 0  1.000000
      3 "GEN G3      "  20.00 "1 " "                                " :  1       3 "GEN G3      "  20.00  1.000000  1.000000   2    1 719.094610 765.000010   0.000000 176.002502 473.999977 -200.000000 900.0000 0.000 0.000 0.000 0.250      -1 "            "   0.00      -1 "            "   0.00    400101   391231   0 0 /
 0.0000 0.0000 1.0000    1 1.000   0 0.000   0 0.000   0 0.000   0 0.000   0 0.000   0 0.000   0 0.000   0   0   0   0   0   0   0    0.0 0 0  1.000000
      4 "GEN G4      "  20.00 "1 " "                                " :  1       4 "GEN G4      "  20.00  1.000000  1.000000   2    1 700.000000 765.000010   0.000000 202.056527 473.999977 -200.000000 900.0000 0.000 0.000 0.000 0.250      -1 "            "   0.00      -1 "            "   0.00    400101   391231   0 0 /
 0.0000 0.0000 1.0000    1 1.000   0 0.000   0 0.000   0 0.000   0 0.000   0 0.000   0 0.000   0 0.000   0   0   0   0   0   0   0    0.0 0 0  1.000000
load data  [   3]             id   ------------long_id_------------     st      mw      mvar    mw_i    mvar_i  mw_z      mvar_z  ar zone  date_in date_out pid N own M nonc  thr_bus flg
      7 "LOAD A      " 230.00 "1 " "                                "  :  1 967.000008 100.000000 0.000000 0.000000 0.000000 0.000000   1    1   400101   391231   0 0   1 0    0       0 "            "   0.00   0
      8 "MID POINT   " 230.00 "1 " "                                "  :  0 0.000000 50.000000 0.000000 0.000000 0.000000 0.000000   1    1   400101   391231   0 0   1 0    0       0 "            "   0.00   0
      9 "LOAD B      " 230.00 "1 " "                                "  :  1 1767.000008 100.000000 0.000000 0.000000 0.000000 0.000000   2    1   400101   391231   0 0   1 0    0       0 "            "   0.00   0
shunt data  [   2]             id                                 ck  se  ------------long_id_------------     st ar  zone    pu_mw  pu_mvar  date_in date_out pid N own part1 own part2 own part3 own part4 --num-- ----name----  --kv-- M --num--  ----name----  --kv--  ID  st
      7 "LOAD A      " 230.00 "1 "       0 "            "   0.00 "  "  0 "                                "  :  1   1    1 0.000000 2.000000   400101   391231   0 0    1 1.000   0 0.000   0 0.000   0 0.000      0 "            "   0.00 "  "  0 0
      9 "LOAD B      " 230.00 "1 "       0 "            "   0.00 "  "  0 "                                "  :  1   2    1 0.000000 3.500000   400101   391231   0 0    1 1.000   0 0.000   0 0.000   0 0.000      0 "            "   0.00 "  "  0 0
svd data  [   0]               id   ------------long_id_------------    st ty --no---     reg_name           ar zone      g      b  min_c  max_c  vband   bmin   bmax  date_in date_out pid N own part1 own part2 own part3 own part4 M st
area data  [  2]                            swing  desired    tol      pnet     qnet
    1 "LEFT                            "       1  400.000    5.000  390.735  -48.687 0
    2 "RIGHT                           "       3 -400.000    5.000 -390.735   48.687 0
zone data  [   1]                            pnet     qnet
    1 "1                               "    0.000    0.000 0
interface data  [   0]                      pnet     qnet   -rate1- -rate2- -rate3- -rate4- -rate5- -rate6- -rate7- -rate8-
interface branch data  [    0]                              ck      -i_no-  part_fac  
dc bus data  [ 0]             ty ar  zone   vsched     dc_volt  date_in date_out pid own
dc converter data  [ 0]                               id   long_id_    st ty md nb fg  --no---           reg   ar zone  date_in date_out
z table data  [ 0]  -tap2 fact2 -tap3 fact3 -tap4 fact4 -tap5 fact5 -tap6 fact6 -tap7 fact7 -tap8 fact8 -tap9 fact9 tap10 fac10 tap11 fac11
gcd data  [   0]
transaction data  [    0]              st    sch_mw   sch_mvar  flag stn pid         transaction name
owner data  [    1]    owner name           s name       net_mw   net_mvar     sch_mw   sch_mvar  ar
       1 "1                               " "    " :     0.000      0.000      0.000      0.000   0 0 


qtable data     [   0]   id     p[0]   qmx[0]  qmn[0]  ....
end
